Version 4
SHEET 1 880 680
WIRE 144 48 -224 48
WIRE 416 64 336 64
WIRE -160 80 -224 80
WIRE 144 80 80 80
WIRE 688 96 608 96
WIRE 736 96 688 96
WIRE -160 112 -224 112
WIRE 144 112 112 112
WIRE 416 128 368 128
WIRE 416 160 320 160
WIRE -160 192 -224 192
WIRE 320 192 320 160
WIRE 320 192 16 192
WIRE 112 224 112 112
WIRE 112 224 -224 224
WIRE 368 240 368 128
WIRE 688 240 688 96
WIRE 688 240 368 240
WIRE -112 272 -224 272
WIRE -48 272 -112 272
WIRE 304 272 144 272
WIRE -48 304 -224 304
WIRE 736 304 496 304
WIRE -112 336 -112 272
WIRE -48 336 -112 336
WIRE 304 336 144 336
WIRE -48 368 -224 368
WIRE 304 368 272 368
SYMBOL NET2FPGA\\32\ bit\ (analog)\\Port\\ADC\\NET2FPGA_32Bit_ADC1 -224 80 R0
SYMATTR InstName U1
SYMBOL NET2FPGA\\32\ bit\ (analog)\\Port\\ADC\\NET2FPGA_32Bit_ADC2 -224 272 R0
SYMATTR InstName U2
SYMBOL NET2FPGA\\32\ bit\ (analog)\\Arithmetic\\NET2FPGA_32Bit_shiftR -112 64 R0
SYMATTR InstName U3
SYMBOL NET2FPGA\\32\ bit\ (analog)\\Arithmetic\\NET2FPGA_32Bit_add 464 112 R0
SYMATTR InstName U4
SYMBOL NET2FPGA\\32\ bit\ (analog)\\Logic\\NET2FPGA_32Bit_switch 192 96 R0
SYMATTR InstName U5
SYMBOL NET2FPGA\\32\ bit\ (analog)\\Constant\\NET2FPGA_32Bit_const -336 48 R0
SYMATTR InstName zero
SYMBOL NET2FPGA\\01\ bit\ (digital)\\Port\\digitalIn\\NET2FPGA_1Bit_digitalIn0 -272 192 R0
SYMATTR InstName reset
SYMBOL NET2FPGA\\01\ bit\ (digital)\\Port\\digitalIn\\NET2FPGA_1Bit_digitalIn1 -272 224 R0
SYMATTR InstName gate
SYMBOL NET2FPGA\\01\ bit\ (digital)\\Logic\\NET2FPGA_1Bit_not -80 192 R0
SYMATTR InstName U9
SYMBOL NET2FPGA\\32\ bit\ (analog)\\Port\\DAC\\NET2FPGA_32Bit_DAC1 816 96 R0
SYMATTR InstName U7
SYMBOL NET2FPGA\\32\ bit\ (analog)\\Port\\DAC\\NET2FPGA_32Bit_DAC2 816 304 R0
SYMATTR InstName U8
SYMBOL NET2FPGA\\32\ bit\ (analog)\\Constant\\NET2FPGA_32Bit_const -336 112 R0
SYMATTR InstName shiftR
SYMBOL NET2FPGA\\32\ bit\ (analog)\\Timing\\NET2FPGA_32Bit_sampleHold 0 320 R0
SYMATTR InstName U6
SYMBOL NET2FPGA\\32\ bit\ (analog)\\Timing\\NET2FPGA_32Bit_sampleHold 0 384 R0
SYMATTR InstName U10
SYMBOL NET2FPGA\\32\ bit\ (analog)\\Arithmetic\\NET2FPGA_32Bit_sub 352 320 R0
SYMATTR InstName U11
SYMBOL NET2FPGA\\01\ bit\ (digital)\\Constant\\NET2FPGA_1Bit_const 160 368 R0
SYMATTR InstName U12
SYMBOL NET2FPGA\\01\ bit\ (digital)\\Port\\digitalIn\\NET2FPGA_1Bit_digitalIn2 -272 368 R0
SYMATTR InstName SHA
SYMBOL NET2FPGA\\01\ bit\ (digital)\\Port\\digitalIn\\NET2FPGA_1Bit_digitalIn3 -272 304 R0
SYMATTR InstName SHB
