* C:\Users\pgomez\Desktop\NET2FPGA\Examples\Basic\Integrator\Input\mainCircuit.asc
XU1 N003 NET2FPGA_32Bit_ADC1
XU2 N010 NET2FPGA_32Bit_ADC2
XU3 N003 N006 N004 NET2FPGA_32Bit_shiftR
XU4 N002 N005 N008 N005 NET2FPGA_32Bit_add
XU5 N001 N004 N007 N002 NET2FPGA_32Bit_switch
Xzero N001 NET2FPGA_32Bit_const
Xreset N009 NET2FPGA_1Bit_digitalIn0
Xgate N007 NET2FPGA_1Bit_digitalIn1
XU9 N009 N008 NET2FPGA_1Bit_not
XU7 N005 NET2FPGA_32Bit_DAC1
XU8 N013 NET2FPGA_32Bit_DAC2
XshiftR N006 NET2FPGA_32Bit_const
XU6 N010 N012 N011 NET2FPGA_32Bit_sampleHold
XU10 N010 N015 N014 NET2FPGA_32Bit_sampleHold
XU11 N011 N014 N016 N013 NET2FPGA_32Bit_sub
XU12 N016 NET2FPGA_1Bit_const
XSHA N015 NET2FPGA_1Bit_digitalIn2
XSHB N012 NET2FPGA_1Bit_digitalIn3
.backanno
.end
