* E:\NET2FPGA\Github_container\Python\Examples\Example1\Input\mainCircuit.asc
XU1 N001 NET2FPGA_1Bit_in0
XU2 N002 NET2FPGA_1Bit_in1
XU4 N001 NET2FPGA_1Bit_LED0
XU5 N002 NET2FPGA_1Bit_LED1
XU6 N003 NET2FPGA_1Bit_LED2
XU3 N003 NET2FPGA_1Bit_const
XU7 N005 NET2FPGA_32Bit_ADC1
XU8 N004 NET2FPGA_32Bit_DAC1
XU9 N006 NET2FPGA_32Bit_DAC2
XU10 N005 N004 N001 N006 NET2FPGA_32Bit_add
XU11 N004 NET2FPGA_32Bit_const
.backanno
.end
