* E:\NET2FPGA\Github_container\Python\Examples\Example1\Input\mainCircuit.asc
XU1 N002 NET2FPGA_32Bit_ADC1
XU2 N003 NET2FPGA_32Bit_DAC1
XU4 N001 NET2FPGA_1Bit_in0
XU5 N001 NET2FPGA_1Bit_LED0
XU8 N004 NET2FPGA_32Bit_ADC2
XU9 N002 N004 N001 N003 NET2FPGA_32Bit_add
XU3 N002 N006 N005 NET2FPGA_32Bit_shiftR
XU6 N005 NET2FPGA_32Bit_DAC2
XU7 N006 NET2FPGA_32Bit_const
.backanno
.end
