* E:\NET2FPGA\Github_container\Python\Examples\Example1\Input\mainCircuit.asc
XU1 N002 NET2FPGA_32Bit_ADC1
XU2 N002 NET2FPGA_32Bit_DAC1
XU3 N002 NET2FPGA_32Bit_DAC2
XU4 N001 NET2FPGA_1Bit_in0
XU5 N001 NET2FPGA_1Bit_LED0
.backanno
.end
