* E:\NET2FPGA\Github_container\Python\Examples\Example1\Input\mainCircuit.asc
XU1 N001 NET2FPGA_1Bit_in0
XU2 N002 NET2FPGA_1Bit_in1
XU4 N001 NET2FPGA_1Bit_LED0
XU5 N002 NET2FPGA_1Bit_LED1
XU6 N003 NET2FPGA_1Bit_LED2
XU3 N003 NET2FPGA_1Bit_const
.backanno
.end
