Version 4
SHEET 1 880 680
WIRE -128 176 -384 176
WIRE -96 176 -128 176
WIRE -80 304 -384 304
WIRE 176 320 112 320
WIRE -80 336 -368 336
WIRE -368 352 -368 336
WIRE -368 352 -384 352
WIRE -128 368 -128 176
WIRE -80 368 -128 368
WIRE 176 576 112 576
SYMBOL NET2FPGA\\32\ bit\ (analog)\\Port\\ADC\\NET2FPGA_32Bit_ADC1 -384 304 R0
SYMATTR InstName U1
SYMBOL NET2FPGA\\32\ bit\ (analog)\\Port\\DAC\\NET2FPGA_32Bit_DAC1 256 320 R0
SYMATTR InstName U2
SYMBOL NET2FPGA\\32\ bit\ (analog)\\Port\\DAC\\NET2FPGA_32Bit_DAC2 256 576 R0
SYMATTR InstName U3
SYMBOL NET2FPGA\\01\ bit\ (digital)\\Port\\IN\\NET2FPGA_1Bit_in0 -432 176 R0
SYMATTR InstName U4
SYMBOL NET2FPGA\\01\ bit\ (digital)\\Port\\LED\\NET2FPGA_1Bit_LED0 -16 176 R0
SYMATTR InstName U5
SYMBOL NET2FPGA\\32\ bit\ (analog)\\Logic\\NET2FPGA_32Bit_switch -32 352 R0
SYMATTR InstName U7
SYMBOL NET2FPGA\\32\ bit\ (analog)\\Port\\ADC\\NET2FPGA_32Bit_ADC2 -384 352 R0
SYMATTR InstName U8
SYMBOL NET2FPGA\\32\ bit\ (analog)\\Constant\\NET2FPGA_32Bit_const 0 576 R0
SYMATTR InstName U6
