Version 4
SHEET 1 880 680
WIRE -304 176 -384 176
WIRE -96 176 -304 176
WIRE -272 304 -384 304
WIRE 176 320 112 320
WIRE 112 336 112 320
WIRE 112 336 -80 336
WIRE -272 368 -384 368
WIRE -304 400 -304 176
WIRE -272 400 -304 400
SYMBOL NET2FPGA\\32\ bit\ (analog)\\Port\\ADC\\NET2FPGA_32Bit_ADC1 -384 304 R0
SYMATTR InstName U1
SYMBOL NET2FPGA\\32\ bit\ (analog)\\Port\\DAC\\NET2FPGA_32Bit_DAC1 256 320 R0
SYMATTR InstName U2
SYMBOL NET2FPGA\\01\ bit\ (digital)\\Port\\IN\\NET2FPGA_1Bit_in0 -432 176 R0
SYMATTR InstName U4
SYMBOL NET2FPGA\\01\ bit\ (digital)\\Port\\LED\\NET2FPGA_1Bit_LED0 -16 176 R0
SYMATTR InstName U5
SYMBOL NET2FPGA\\32\ bit\ (analog)\\Port\\ADC\\NET2FPGA_32Bit_ADC2 -384 368 R0
SYMATTR InstName U8
SYMBOL NET2FPGA\\32\ bit\ (analog)\\Arithmetic\\NET2FPGA_32Bit_add -224 352 R0
SYMATTR InstName U9
