Version 4
SHEET 1 880 680
WIRE 80 16 -144 16
WIRE 80 112 80 16
WIRE 80 112 32 112
WIRE 176 112 80 112
WIRE 176 176 32 176
WIRE 176 240 32 240
WIRE 304 304 48 304
WIRE 48 352 48 304
WIRE 48 352 16 352
WIRE 80 352 48 352
WIRE 304 352 304 304
WIRE 336 352 304 352
WIRE 288 384 272 384
WIRE 80 416 32 416
WIRE -144 448 -144 16
WIRE 80 448 -144 448
WIRE 288 512 288 384
WIRE 336 512 288 512
SYMBOL NET2FPGA\\01\ bit\ (digital)\\Port\\IN\\NET2FPGA_1Bit_in0 -16 112 R0
SYMATTR InstName U1
SYMBOL NET2FPGA\\01\ bit\ (digital)\\Port\\IN\\NET2FPGA_1Bit_in1 -16 176 R0
SYMATTR InstName U2
SYMBOL NET2FPGA\\01\ bit\ (digital)\\Port\\LED\\NET2FPGA_1Bit_LED0 256 112 R0
SYMATTR InstName U4
SYMBOL NET2FPGA\\01\ bit\ (digital)\\Port\\LED\\NET2FPGA_1Bit_LED1 256 176 R0
SYMATTR InstName U5
SYMBOL NET2FPGA\\01\ bit\ (digital)\\Port\\LED\\NET2FPGA_1Bit_LED2 256 240 R0
SYMATTR InstName U6
SYMBOL NET2FPGA\\01\ bit\ (digital)\\Constant\\NET2FPGA_1Bit_const -80 240 R0
SYMATTR InstName U3
SYMBOL NET2FPGA\\32\ bit\ (analog)\\Port\\ADC\\NET2FPGA_32Bit_ADC1 16 352 R0
SYMATTR InstName U7
SYMBOL NET2FPGA\\32\ bit\ (analog)\\Port\\DAC\\NET2FPGA_32Bit_DAC1 416 352 R0
SYMATTR InstName U8
SYMBOL NET2FPGA\\32\ bit\ (analog)\\Port\\DAC\\NET2FPGA_32Bit_DAC2 416 512 R0
SYMATTR InstName U9
SYMBOL NET2FPGA\\32\ bit\ (analog)\\Arithmetic\\NET2FPGA_32Bit_add 128 400 R0
SYMATTR InstName U10
SYMBOL NET2FPGA\\32\ bit\ (analog)\\Constant\\NET2FPGA_32Bit_const -80 416 R0
SYMATTR InstName U11
