Version 4
SHEET 1 880 680
WIRE -96 176 -384 176
WIRE -96 272 -128 272
WIRE -128 304 -128 272
WIRE -128 304 -384 304
WIRE -128 352 -128 304
WIRE -96 352 -128 352
SYMBOL NET2FPGA\\32\ bit\ (analog)\\Port\\ADC\\NET2FPGA_32Bit_ADC1 -384 304 R0
SYMATTR InstName U1
SYMBOL NET2FPGA\\32\ bit\ (analog)\\Port\\DAC\\NET2FPGA_32Bit_DAC1 -16 272 R0
SYMATTR InstName U2
SYMBOL NET2FPGA\\32\ bit\ (analog)\\Port\\DAC\\NET2FPGA_32Bit_DAC2 -16 352 R0
SYMATTR InstName U3
SYMBOL NET2FPGA\\01\ bit\ (digital)\\Port\\IN\\NET2FPGA_1Bit_in0 -432 176 R0
SYMATTR InstName U4
SYMBOL NET2FPGA\\01\ bit\ (digital)\\Port\\LED\\NET2FPGA_1Bit_LED0 -16 176 R0
SYMATTR InstName U5
