Version 4
SHEET 1 880 680
WIRE 176 112 32 112
WIRE 176 176 32 176
WIRE 176 240 32 240
SYMBOL NET2FPGA\\01\ bit\ (digital)\\Port\\IN\\NET2FPGA_1Bit_in0 -16 112 R0
SYMATTR InstName U1
SYMBOL NET2FPGA\\01\ bit\ (digital)\\Port\\IN\\NET2FPGA_1Bit_in1 -16 176 R0
SYMATTR InstName U2
SYMBOL NET2FPGA\\01\ bit\ (digital)\\Port\\LED\\NET2FPGA_1Bit_LED0 256 112 R0
SYMATTR InstName U4
SYMBOL NET2FPGA\\01\ bit\ (digital)\\Port\\LED\\NET2FPGA_1Bit_LED1 256 176 R0
SYMATTR InstName U5
SYMBOL NET2FPGA\\01\ bit\ (digital)\\Port\\LED\\NET2FPGA_1Bit_LED2 256 240 R0
SYMATTR InstName U6
SYMBOL NET2FPGA\\01\ bit\ (digital)\\Constant\\NET2FPGA_1Bit_const -80 240 R0
SYMATTR InstName U3
