Version 4
SHEET 1 880 692
WIRE -336 176 -384 176
WIRE -96 176 -336 176
WIRE -320 256 -352 256
WIRE -96 272 -128 272
WIRE -320 288 -368 288
WIRE -352 304 -352 256
WIRE -352 304 -384 304
WIRE -336 320 -336 176
WIRE -320 320 -336 320
WIRE -368 368 -368 288
WIRE -368 368 -384 368
WIRE -352 384 -352 304
WIRE -320 384 -352 384
WIRE -96 400 -128 400
WIRE -368 416 -368 368
WIRE -320 416 -368 416
WIRE -336 448 -336 320
WIRE -320 448 -336 448
SYMBOL NET2FPGA\\32\ bit\ (analog)\\Port\\ADC\\NET2FPGA_32Bit_ADC1 -384 304 R0
SYMATTR InstName U1
SYMBOL NET2FPGA\\32\ bit\ (analog)\\Port\\DAC\\NET2FPGA_32Bit_DAC1 -16 272 R0
SYMATTR InstName U2
SYMBOL NET2FPGA\\32\ bit\ (analog)\\Port\\DAC\\NET2FPGA_32Bit_DAC2 -16 400 R0
SYMATTR InstName U3
SYMBOL NET2FPGA\\01\ bit\ (digital)\\Port\\IN\\NET2FPGA_1Bit_in0 -432 176 R0
SYMATTR InstName U4
SYMBOL NET2FPGA\\01\ bit\ (digital)\\Port\\LED\\NET2FPGA_1Bit_LED0 -16 176 R0
SYMATTR InstName U5
SYMBOL NET2FPGA\\32\ bit\ (analog)\\Logic\\NET2FPGA_32Bit_switch -272 304 R0
SYMATTR InstName U6
SYMBOL NET2FPGA\\32\ bit\ (analog)\\Logic\\NET2FPGA_32Bit_switch -272 432 R0
SYMATTR InstName U7
SYMBOL NET2FPGA\\32\ bit\ (analog)\\Constant\\NET2FPGA_32Bit_const -496 368 R0
SYMATTR InstName U8
