* E:\NET2FPGA\Github_container\Python\Examples\Example1\Input\mainCircuit.asc
XU1 N002 NET2FPGA_32Bit_ADC1
XU2 N003 NET2FPGA_32Bit_DAC1
XU3 N005 NET2FPGA_32Bit_DAC2
XU4 N001 NET2FPGA_1Bit_in0
XU5 N001 NET2FPGA_1Bit_LED0
XU6 N002 N004 N001 N003 NET2FPGA_32Bit_switch
XU7 N002 N004 N001 N005 NET2FPGA_32Bit_switch
XU8 N004 NET2FPGA_32Bit_const
.backanno
.end
