Version 4
SHEET 1 880 680
WIRE 400 96 48 96
WIRE 48 144 48 96
WIRE 48 144 32 144
WIRE 96 144 48 144
WIRE 400 176 288 176
WIRE 96 208 48 208
WIRE 96 240 64 240
WIRE 48 256 48 208
WIRE 64 304 64 240
WIRE 160 368 112 368
WIRE 208 368 160 368
WIRE 160 416 160 368
WIRE 208 416 160 416
SYMBOL FPGA_constDigital -48 304 R0
SYMATTR InstName U3
SYMBOL FPGA_add 144 192 R0
SYMATTR InstName U4
SYMBOL FPGA_ADC_1 32 144 R0
SYMATTR InstName U1
SYMBOL FPGA_DAC_1 480 176 R0
SYMATTR InstName U5
SYMBOL FPGA_constAnalog -64 256 R0
SYMATTR InstName U6
SYMBOL FPGA/Digital/Port/digitalIn/FPGA_digitalIn_1 64 368 R0
SYMATTR InstName U2
SYMBOL FPGA/Digital/Port/digitalOut/FPGA_digitalOut_0 288 368 R0
SYMATTR InstName U7
SYMBOL FPGA/Digital/Port/LED/FPGA_LED_5 288 416 R0
SYMATTR InstName U8
SYMBOL FPGA/Analog/Port/DAC/FPGA_DAC_2 480 96 R0
SYMATTR InstName U9
