Version 4
SHEET 1 880 680
WIRE 224 384 176 384
WIRE 176 416 176 384
WIRE 224 416 176 416
WIRE 176 432 176 416
WIRE 176 432 128 432
WIRE 176 448 176 432
WIRE 224 448 176 448
WIRE 176 480 176 448
WIRE 224 480 176 480
SYMBOL x1_led4 304 384 R0
SYMATTR InstName U5
SYMBOL x1_led5 304 416 R0
SYMATTR InstName U6
SYMBOL x1_led6 304 448 R0
SYMATTR InstName U7
SYMBOL x1_led7 304 480 R0
SYMATTR InstName U8
SYMBOL x1_const 16 432 R0
SYMATTR InstName led4567
