Version 4
SHEET 1 880 680
WIRE 224 128 128 128
WIRE 224 192 128 192
WIRE 224 272 128 272
WIRE 224 352 128 352
WIRE 224 384 176 384
WIRE 176 416 176 384
WIRE 224 416 176 416
WIRE 176 432 176 416
WIRE 176 432 128 432
WIRE 176 448 176 432
WIRE 224 448 176 448
WIRE 176 480 176 448
WIRE 224 480 176 480
SYMBOL Canvas\\x1\\Constant\\x1_const 16 128 R0
SYMATTR InstName led0
SYMBOL Canvas\\x1\\Constant\\x1_const 16 192 R0
SYMATTR InstName led1
SYMBOL Canvas\\x1\\Constant\\x1_const 16 272 R0
SYMATTR InstName led2
SYMBOL Canvas\\x1\\Constant\\x1_const 16 352 R0
SYMATTR InstName led3
SYMBOL Canvas\\x1\\Port\\LED\\x1_led0 304 128 R0
SYMATTR InstName U1
SYMBOL Canvas\\x1\\Port\\LED\\x1_led1 304 192 R0
SYMATTR InstName U2
SYMBOL Canvas\\x1\\Port\\LED\\x1_led2 304 272 R0
SYMATTR InstName U3
SYMBOL Canvas\\x1\\Port\\LED\\x1_led3 304 352 R0
SYMATTR InstName U4
SYMBOL Canvas\\x1\\Port\\LED\\x1_led4 304 384 R0
SYMATTR InstName U5
SYMBOL Canvas\\x1\\Port\\LED\\x1_led5 304 416 R0
SYMATTR InstName U6
SYMBOL Canvas\\x1\\Port\\LED\\x1_led6 304 448 R0
SYMATTR InstName U7
SYMBOL Canvas\\x1\\Port\\LED\\x1_led7 304 480 R0
SYMATTR InstName U8
SYMBOL Canvas\\x1\\Constant\\x1_const 16 432 R0
SYMATTR InstName led4567
