* E:\NET2FPGA\Github_container\Examples\Basic\ledBlink\Input\mainCircuit.asc
XU1 N004 N006 N005 N006 NET2FPGA_32Bit_add
Xzero N004 NET2FPGA_32Bit_const
XPWM_period N002 NET2FPGA_32Bit_const
XU4 N002 N006 N005 NET2FPGA_32Bit_compareGreaterEqual
XdutyCycle N001 NET2FPGA_32Bit_const
XU2 N001 N005 N003 NET2FPGA_32Bit_compareGreater
XU3 N003 NET2FPGA_1Bit_LED0
.backanno
.end
