Version 4
SHEET 1 1064 680
WIRE 640 48 -16 48
WIRE 336 80 -16 80
WIRE 32 112 -16 112
WIRE 544 112 512 112
WIRE 288 144 224 144
WIRE 336 144 288 144
WIRE 640 160 640 48
WIRE 688 160 640 160
WIRE 32 176 0 176
WIRE 960 192 864 192
WIRE 32 208 -32 208
WIRE 288 224 288 144
WIRE 688 224 288 224
WIRE 0 288 0 176
WIRE 288 288 288 224
WIRE 288 288 0 288
WIRE -32 304 -32 208
WIRE 544 304 544 112
WIRE 544 304 -32 304
SYMBOL NET2FPGA\\32\ bit\ (analog)\\Arithmetic\\NET2FPGA_32Bit_add 80 160 R0
SYMATTR InstName U1
SYMBOL NET2FPGA\\32\ bit\ (analog)\\Constant\\NET2FPGA_32Bit_const -128 112 R0
SYMATTR InstName increment
SYMBOL NET2FPGA\\32\ bit\ (analog)\\Constant\\NET2FPGA_32Bit_const -128 80 R0
SYMATTR InstName PWM_period
SYMBOL NET2FPGA\\32\ bit\ (analog)\\Constant\\NET2FPGA_32Bit_const -128 48 R0
SYMATTR InstName dutyCycle
SYMBOL NET2FPGA\\32\ bit\ (analog)\\Logic\\NET2FPGA_32Bit_compareGreater 736 208 R0
SYMATTR InstName U2
SYMBOL NET2FPGA\\01\ bit\ (digital)\\Port\\LED\\NET2FPGA_1Bit_LED0 1040 192 R0
SYMATTR InstName U3
SYMBOL NET2FPGA\\32\ bit\ (analog)\\Logic\\NET2FPGA_32Bit_compareSmaller 384 128 R0
SYMATTR InstName U4
