* E:\NET2FPGA\Github_container\Examples\Basic\ledBlink\Input\mainCircuit.asc
XU1 N003 N005 N004 N005 NET2FPGA_32Bit_add
Xincrement N003 NET2FPGA_32Bit_const
XPWM_period N002 NET2FPGA_32Bit_const
XdutyCycle N001 NET2FPGA_32Bit_const
XU2 N001 N005 N006 NET2FPGA_32Bit_compareGreater
XU3 N006 NET2FPGA_1Bit_LED0
XU4 N002 N005 N004 NET2FPGA_32Bit_compareSmaller
.backanno
.end
