* E:\NET2FPGA\Github_container\Python\Examples\Example2\Input\mainCircuit.asc
XU2 N003 NET2FPGA_32Bit_DAC1
XU4 N001 NET2FPGA_1Bit_in0
XU5 N001 NET2FPGA_1Bit_LED0
XU6 N005 NET2FPGA_32Bit_DAC2
XU7 N004 NET2FPGA_32Bit_const
XU1 N002 NET2FPGA_32Bit_const
XU3 N002 N004 N001 N003 N005 NET2FPGA_32Bit_DDS
.backanno
.end
