* C:\Users\pgomez\Desktop\NET2FPGA\Examples\Basic\DSP_test\Input\mainCircuit.asc
XU1 N001 NET2FPGA_32Bit_ADC1
XU2 N003 NET2FPGA_32Bit_ADC2
XU3 N001 N003 N004 N002 NET2FPGA_32Bit_mult
XU4 N001 N003 N004 N007 NET2FPGA_32Bit_add
XU5 N004 NET2FPGA_1Bit_const
XU6 N002 N007 N008 N005 NET2FPGA_32Bit_switch
XU7 N008 NET2FPGA_1Bit_digitalIn0
XU8 N006 NET2FPGA_32Bit_DAC1
Xoffset N009 NET2FPGA_32Bit_const
XU10 N005 N009 N004 N006 NET2FPGA_32Bit_add
.backanno
.end
