Version 4
SHEET 1 1216 680
WIRE 96 128 16 128
WIRE 144 128 96 128
WIRE 448 160 336 160
WIRE 64 192 16 192
WIRE 144 192 64 192
WIRE 144 224 32 224
WIRE 448 240 448 160
WIRE 512 240 448 240
WIRE 32 256 32 224
WIRE 32 256 16 256
WIRE 784 256 704 256
WIRE 1088 256 1040 256
WIRE 512 272 448 272
WIRE 96 288 96 128
WIRE 144 288 96 288
WIRE 1040 288 1040 256
WIRE 1040 288 976 288
WIRE 512 304 496 304
WIRE 448 320 448 272
WIRE 448 320 336 320
WIRE 784 320 736 320
WIRE 64 352 64 192
WIRE 144 352 64 352
WIRE 784 352 448 352
WIRE 32 384 32 256
WIRE 96 384 32 384
WIRE 144 384 96 384
WIRE 96 432 96 384
WIRE 448 432 448 352
WIRE 448 432 96 432
WIRE 736 432 736 320
WIRE 736 432 688 432
WIRE 496 464 496 304
WIRE 496 464 16 464
WIRE 0 0 0 0
SYMBOL NET2FPGA\\32\ bit\ (analog)\\Port\\ADC\\NET2FPGA_32Bit_ADC1 16 128 R0
SYMATTR InstName U1
SYMBOL NET2FPGA\\32\ bit\ (analog)\\Port\\ADC\\NET2FPGA_32Bit_ADC2 16 192 R0
SYMATTR InstName U2
SYMBOL NET2FPGA\\32\ bit\ (analog)\\Arithmetic\\NET2FPGA_32Bit_mult 192 176 R0
SYMATTR InstName U3
SYMBOL NET2FPGA\\32\ bit\ (analog)\\Arithmetic\\NET2FPGA_32Bit_add 192 336 R0
SYMATTR InstName U4
SYMBOL NET2FPGA\\01\ bit\ (digital)\\Constant\\NET2FPGA_1Bit_const -96 256 R0
SYMATTR InstName U5
SYMBOL NET2FPGA\\32\ bit\ (analog)\\Logic\\NET2FPGA_32Bit_switch 560 288 R0
SYMATTR InstName U6
SYMBOL NET2FPGA\\01\ bit\ (digital)\\Port\\digitalIn\\NET2FPGA_1Bit_digitalIn0 -32 464 R0
SYMATTR InstName U7
SYMBOL NET2FPGA\\32\ bit\ (analog)\\Port\\DAC\\NET2FPGA_32Bit_DAC1 1168 256 R0
SYMATTR InstName U8
SYMBOL NET2FPGA\\32\ bit\ (analog)\\Constant\\NET2FPGA_32Bit_const 576 432 R0
SYMATTR InstName U9
SYMBOL NET2FPGA\\32\ bit\ (analog)\\Arithmetic\\NET2FPGA_32Bit_add 832 304 R0
SYMATTR InstName U10
