* C:\Users\pgomez\Desktop\NET2FPGA\Examples\Basic\PulseFaraday\Input\mainCircuit.asc
XU1 N001 NET2FPGA_32Bit_ADC1
XU2 N001 N008 N010 N005 NET2FPGA_32Bit_add
XintOffset N008 NET2FPGA_32Bit_const
XU4 N010 NET2FPGA_1Bit_const
XU3 N003 N006 N004 NET2FPGA_32Bit_shiftR
XintShiftR N006 NET2FPGA_32Bit_const
XU5 N004 N007 N011 N007 NET2FPGA_32Bit_add
XU6 N002 N005 N009 N003 NET2FPGA_32Bit_switch
XU7 N002 NET2FPGA_32Bit_const
XintStartStop N009 NET2FPGA_1Bit_digitalIn1
XintReset N011 NET2FPGA_1Bit_digitalIn0
XU8 N007 NET2FPGA_32Bit_DAC1
XU9 N012 NET2FPGA_32Bit_ADC2
XU10 N012 N014 N013 NET2FPGA_32Bit_sampleHold
XU11 N012 N023 N017 NET2FPGA_32Bit_sampleHold
XSHA N023 NET2FPGA_1Bit_digitalIn2
XSHB N014 NET2FPGA_1Bit_digitalIn3
XU12 N013 N017 N020 N015 NET2FPGA_32Bit_sub
XU13 N020 NET2FPGA_1Bit_const
XU14 N015 N018 N016 NET2FPGA_32Bit_shiftL
XU15 N018 NET2FPGA_32Bit_const
XU16 N016 N021 N022 N019 NET2FPGA_32Bit_add
XU17 N022 NET2FPGA_1Bit_const
XU18 N021 NET2FPGA_32Bit_const
XU19 N019 NET2FPGA_32Bit_DAC2
.backanno
.end