Version 4
SHEET 1 1104 916
WIRE -560 352 -752 352
WIRE -176 352 -208 352
WIRE 208 368 16 368
WIRE 544 368 448 368
WIRE -176 384 -368 384
WIRE 208 400 176 400
WIRE 784 400 736 400
WIRE 976 400 784 400
WIRE -560 416 -592 416
WIRE -176 416 -272 416
WIRE 544 432 512 432
WIRE -560 448 -592 448
WIRE 544 464 448 464
WIRE -272 496 -272 416
WIRE -272 496 -752 496
WIRE 448 528 448 464
WIRE 448 528 -752 528
WIRE 512 528 512 432
WIRE 784 528 784 400
WIRE 784 528 512 528
WIRE -688 752 -752 752
WIRE -608 752 -688 752
WIRE -208 752 -416 752
WIRE -608 784 -752 784
WIRE 160 784 -16 784
WIRE 576 784 400 784
WIRE -208 816 -384 816
WIRE 160 816 128 816
WIRE 976 816 768 816
WIRE -208 848 -240 848
WIRE 576 848 528 848
WIRE -688 864 -688 752
WIRE -608 864 -688 864
WIRE -384 864 -384 816
WIRE -384 864 -416 864
WIRE 576 880 528 880
WIRE -608 896 -752 896
SYMBOL NET2FPGA\\32\ bit\ (analog)\\Port\\ADC\\NET2FPGA_32Bit_ADC1 -752 352 R0
SYMATTR InstName U1
SYMBOL NET2FPGA\\32\ bit\ (analog)\\Arithmetic\\NET2FPGA_32Bit_add -512 400 R0
SYMATTR InstName U2
SYMBOL NET2FPGA\\32\ bit\ (analog)\\Constant\\NET2FPGA_32Bit_const -704 416 R0
SYMATTR InstName intOffset
SYMBOL NET2FPGA\\01\ bit\ (digital)\\Constant\\NET2FPGA_1Bit_const -704 448 R0
SYMATTR InstName U4
SYMBOL NET2FPGA\\32\ bit\ (analog)\\Arithmetic\\NET2FPGA_32Bit_shiftR 256 352 R0
SYMATTR InstName U3
SYMBOL NET2FPGA\\32\ bit\ (analog)\\Constant\\NET2FPGA_32Bit_const 64 400 R0
SYMATTR InstName intShiftR
SYMBOL NET2FPGA\\32\ bit\ (analog)\\Arithmetic\\NET2FPGA_32Bit_add 592 416 R0
SYMATTR InstName U5
SYMBOL NET2FPGA\\32\ bit\ (analog)\\Logic\\NET2FPGA_32Bit_switch -128 400 R0
SYMATTR InstName U6
SYMBOL NET2FPGA\\32\ bit\ (analog)\\Constant\\NET2FPGA_32Bit_const -320 352 R0
SYMATTR InstName U7
SYMBOL NET2FPGA\\01\ bit\ (digital)\\Port\\digitalIn\\NET2FPGA_1Bit_digitalIn1 -800 496 R0
SYMATTR InstName intStartStop
SYMBOL NET2FPGA\\01\ bit\ (digital)\\Port\\digitalIn\\NET2FPGA_1Bit_digitalIn0 -800 528 R0
SYMATTR InstName intReset
SYMBOL NET2FPGA\\32\ bit\ (analog)\\Port\\DAC\\NET2FPGA_32Bit_DAC1 1056 400 R0
SYMATTR InstName U8
SYMBOL NET2FPGA\\32\ bit\ (analog)\\Port\\ADC\\NET2FPGA_32Bit_ADC2 -752 752 R0
SYMATTR InstName U9
SYMBOL NET2FPGA\\32\ bit\ (analog)\\Timing\\NET2FPGA_32Bit_sampleHold -560 800 R0
SYMATTR InstName U10
SYMBOL NET2FPGA\\32\ bit\ (analog)\\Timing\\NET2FPGA_32Bit_sampleHold -560 912 R0
SYMATTR InstName U11
SYMBOL NET2FPGA\\01\ bit\ (digital)\\Port\\digitalIn\\NET2FPGA_1Bit_digitalIn2 -800 896 R0
SYMATTR InstName SHA
SYMBOL NET2FPGA\\01\ bit\ (digital)\\Port\\digitalIn\\NET2FPGA_1Bit_digitalIn3 -800 784 R0
SYMATTR InstName SHB
SYMBOL NET2FPGA\\32\ bit\ (analog)\\Arithmetic\\NET2FPGA_32Bit_sub -160 800 R0
SYMATTR InstName U12
SYMBOL NET2FPGA\\01\ bit\ (digital)\\Constant\\NET2FPGA_1Bit_const -352 848 R0
SYMATTR InstName U13
SYMBOL NET2FPGA\\32\ bit\ (analog)\\Arithmetic\\NET2FPGA_32Bit_shiftL 208 768 R0
SYMATTR InstName U14
SYMBOL NET2FPGA\\32\ bit\ (analog)\\Constant\\NET2FPGA_32Bit_const 16 816 R0
SYMATTR InstName U15
SYMBOL NET2FPGA\\32\ bit\ (analog)\\Arithmetic\\NET2FPGA_32Bit_add 624 832 R0
SYMATTR InstName U16
SYMBOL NET2FPGA\\01\ bit\ (digital)\\Constant\\NET2FPGA_1Bit_const 416 880 R0
SYMATTR InstName U17
SYMBOL NET2FPGA\\32\ bit\ (analog)\\Constant\\NET2FPGA_32Bit_const 416 848 R0
SYMATTR InstName U18
SYMBOL NET2FPGA\\32\ bit\ (analog)\\Port\\DAC\\NET2FPGA_32Bit_DAC2 1056 816 R0
SYMATTR InstName U19
