Version 4
SHEET 1 896 680
WIRE 208 176 96 176
WIRE 544 208 400 208
WIRE 208 240 96 240
WIRE 752 240 736 240
WIRE 768 240 752 240
WIRE 208 272 96 272
WIRE 752 400 752 240
WIRE 768 400 752 400
SYMBOL Canvas\\x32\\Port\\ADC\\x32_adc1 96 176 R0
SYMATTR InstName U1
SYMBOL Canvas\\x32\\Port\\ADC\\x32_adc2 96 240 R0
SYMATTR InstName U2
SYMBOL Canvas\\x32\\Arithmetic\\x32_add 256 224 R0
SYMATTR InstName U3
SYMBOL Canvas\\x32\\Arithmetic\\x32_add 592 256 R0
SYMATTR InstName U4
SYMBOL Canvas\\x32\\Constant\\x32_const 432 272 R0
SYMATTR InstName offset2
SYMBOL Canvas\\x1\\Constant\\x1_const -16 272 R0
SYMATTR InstName clr1
SYMBOL Canvas\\x32\\Port\\DAC\\x32_dac1 848 240 R0
SYMATTR InstName U5
SYMBOL Canvas\\x32\\Port\\DAC\\x32_dac2 848 400 R0
SYMATTR InstName U6
SYMBOL Canvas\\x1\\Constant\\x1_const 432 304 R0
SYMATTR InstName clr2
