* Z:\home\CanvasServer\LTspiceTmp\mainCircuit.asc
.backanno
.end
